A71EV2A-x3306_A_201_1_A71EV2A-x0526+A+147+1
     RDKit          3D

 20 22  0  0  0  0  0  0  0  0999 V2000
    9.5700   14.2310   25.3500 O   0  0  0  0  0  0  0  0  0  0  0  0
   10.1010   13.3520   24.6730 C   0  0  0  0  0  0  0  0  0  0  0  0
    9.4430   11.9820   24.5270 C   0  0  0  0  0  0  0  0  0  0  0  0
    9.9160   11.0390   23.7080 N   0  0  0  0  0  0  0  0  0  0  0  0
    8.3260   11.4900   25.2820 C   0  0  0  0  0  0  0  0  0  0  0  0
    8.1720   10.1610   24.8690 C   0  0  0  0  0  0  0  0  0  0  0  0
    7.2040    9.3340   25.4210 C   0  0  0  0  0  0  0  0  0  0  0  0
    6.3660    9.8560   26.3930 C   0  0  0  0  0  0  0  0  0  0  0  0
    6.4920   11.1740   26.8020 C   0  0  0  0  0  0  0  0  0  0  0  0
    7.4690   11.9960   26.2550 C   0  0  0  0  0  0  0  0  0  0  0  0
    9.1360    9.9270   23.9330 N   0  0  0  0  0  0  0  0  0  0  0  0
    9.4480    8.6740   23.2620 C   0  0  0  0  0  0  0  0  0  0  0  0
   11.3140   13.4880   24.1330 N   0  0  0  0  0  0  0  0  0  0  0  0
   11.5320   13.7660   22.7230 C   0  0  0  0  0  0  0  0  0  0  0  0
   11.8190   15.2280   22.4540 C   0  0  0  0  0  0  0  0  0  0  0  0
   10.8940   15.6000   21.3380 C   0  0  0  0  0  0  0  0  0  0  0  0
   11.0710   15.0730   20.0640 N   0  0  0  0  0  0  0  0  0  0  0  0
   10.0770   15.3930   19.2990 C   0  0  0  0  0  0  0  0  0  0  0  0
    8.8740   16.3620   20.0220 S   0  0  0  0  0  0  0  0  0  0  0  0
    9.7730   16.3510   21.4750 C   0  0  0  0  0  0  0  0  0  0  0  0
 12 11  1  0
 11  4  1  0
  4  3  2  0
  3  2  1  0
  2  1  2  0
 13  2  1  0
 14 13  1  0
 15 14  1  0
 16 15  1  0
 16 20  2  0
 20 19  1  0
 19 18  1  0
 18 17  2  0
 17 16  1  0
  5  3  1  0
  5 10  2  0
 10  9  1  0
  9  8  2  0
  8  7  1  0
  7  6  2  0
  6  5  1  0
 11  6  1  0
M  END
